/*--------------------------------*- C++ -*----------------------------------*\
| =========                 |                                                 |
| \\      /  F ield         | OpenFOAM: The Open Source CFD Toolbox           |
|  \\    /   O peration     | Version:  v2012                                 |
|   \\  /    A nd           | Website:  www.openfoam.com                      |
|    \\/     M anipulation  |                                                 |
\*---------------------------------------------------------------------------*/
FoamFile
{
    version     2.0;
    format      binary;
    class       volScalarField;
    arch        "LSB;label=32;scalar=64";
    location    "0";
    object      p;
}
// * * * * * * * * * * * * * * * * * * * * * * * * * * * * * * * * * * * * * //

dimensions      [0 2 -2 0 0 0 0];


internalField   uniform 0;

boundaryField
{
    walls
    {
        type            fixedFluxPressure;
        gradient        uniform 0;
        value           uniform 0;
    }
    lowerInlet
    {
        type            fixedFluxPressure;
        gradient        uniform 0;
        value           uniform 0;
    }
    upperInlet
    {
        type            fixedFluxPressure;
        gradient        uniform 0;
        value           uniform 0;
    }
    outlet
    {
        type            fixedValue;
        value           uniform 0;
    }
    frontAndBack
    {
        type            symmetry;
    }
}


// ************************************************************************* //
